/*--------------------------------*- C++ -*----------------------------------*\
| =========                 |                                                 |
| \\      /  F ield         | OpenFOAM: The Open Source CFD Toolbox           |
|  \\    /   O peration     | Version:  dev                                   |
|   \\  /    A nd           | Website:  www.openfoam.com                      |
|    \\/     M anipulation  |                                                 |
\*---------------------------------------------------------------------------*/
FoamFile
{
    version     2.0;
    format      ascii;
    class       dictionary;
    object      blockMeshDict;
}
// * * * * * * * * * * * * * * * * * * * * * * * * * * * * * * * * * * * * * //

scale   1;

L   100;
D   50;
H   50;
N   1;

vertices
(
    (0 0 0)
    ($L 0 0)
    ($L $H 0)
    (0 $H 0)
    (0 0 $D)
    ($L 0 $D)
    ($L $H $D)
    (0 $H $D)
);

blocks
(
    hex (0 1 2 3 4 5 6 7) (#eval "$N*$L" #eval "$N*$H" #eval "$N*$D") simpleGrading (1 1 1)
);

edges
(
);

boundary
(
    left
    {
        type wall;
        faces
        (
            (0 4 7 3)
        );
    }
    right
    {
        type wall;
        faces
        (
            (2 6 5 1)
        );
    }
    topAndBottom
    {
        type wall;
        faces
        (
            (0 3 2 1)
            (4 5 6 7)
        );
    }
    frontAndBack
    {
        type wall;
        faces
        (
            (3 7 6 2)
            (1 5 4 0)
        );
    }
);

mergePatchPairs
(
);


// ************************************************************************* //
