/*--------------------------------*- C++ -*----------------------------------*\
| =========                 |                                                 |
| \\      /  F ield         | OpenFOAM: The Open Source CFD Toolbox           |
|  \\    /   O peration     | Version:  dev                                   |
|   \\  /    A nd           | Website:  www.openfoam.com                      |
|    \\/     M anipulation  |                                                 |
\*---------------------------------------------------------------------------*/
FoamFile
{
    version     2.0;
    format      ascii;
    class       dictionary;
    object      blockMeshDict;
}
// * * * * * * * * * * * * * * * * * * * * * * * * * * * * * * * * * * * * * //

scale 1e-3;

L   10;     // length
W   2;      // width
H   0.5;    // thickness
R   16;     // coefficient of refinement

xmin  #eval "-$L/2";
xmax  #eval "$L/2";
ymin  #eval "-$W/2";
ymax  #eval "$W/2";
zmin  0;
zmax  #eval "$H";
invR  #eval "1./$R";

vertices
(
    ($xmin $ymin $zmin)
    ($xmax $ymin $zmin)
    ($xmax $ymax $zmin)
    ($xmin $ymax $zmin)

    ($xmin $ymin $zmax)
    ($xmax $ymin $zmax)
    ($xmax $ymax $zmax)
    ($xmin $ymax $zmax)
);

blocks
(
    hex (0 1 2 3 4 5 6 7) (30 15 50)
    simpleGrading
    (
        ((0.125 0.25 $R) (0.7 0.5 1) (0.125 0.25 $invR))
        ((0.125 0.25 $R) (0.7 0.5 1) (0.125 0.25 $invR))
        1
    )
);

edges
(
);

boundary
(
    bottom
    {
        type wall;
        faces
        ( 
            (0 1 2 3)
        );
    }
    top
    {
        type wall;
        faces
        (
            (4 5 6 7)
        );
    }
    frontAndBack
    {
        type wall;
        faces
        (
            (3 2 6 7) // front
            (0 1 5 4) // back
        );
    }
    left
    {
        type wall;
        faces
        (
            (3 7 4 0)
        );
    }
    right
    {
        type wall;
        faces
        (
            (1 2 6 5)
        );
    }
);

// ************************************************************************* //
