/*--------------------------------*- C++ -*----------------------------------*\
| =========                 |                                                 |
| \\      /  F ield         | OpenFOAM: The Open Source CFD Toolbox           |
|  \\    /   O peration     | Version:  dev                                   |
|   \\  /    A nd           | Website:  www.openfoam.com                      |
|    \\/     M anipulation  |                                                 |
\*---------------------------------------------------------------------------*/
FoamFile
{
    version     2.0;
    format      ascii;
    class       dictionary;
    location    "system";
    object      setFieldsDict;
}
// * * * * * * * * * * * * * * * * * * * * * * * * * * * * * * * * * * * * * //

defaultFieldValues
(
    volScalarFieldValue polymerization 0.8
    volScalarFieldValue nLayer 2
);

high 1e5;
low -1e5;

regions
(
    boxToCell
    {
        box ($low $low $low) ($high $high 0.25e-3);
        fieldValues
        (
            volScalarFieldValue polymerization 1
            volScalarFieldValue nLayer 1
        );
    }
);


// ************************************************************************* //
