/*--------------------------------*- C++ -*----------------------------------*\
| =========                 |                                                 |
| \\      /  F ield         | OpenFOAM: The Open Source CFD Toolbox           |
|  \\    /   O peration     | Version:  dev                                   |
|   \\  /    A nd           | Website:  www.openfoam.com                      |
|    \\/     M anipulation  |                                                 |
\*---------------------------------------------------------------------------*/
FoamFile
{
    version     2.0;
    format      ascii;
    class       dictionary;
    object      blockMeshDict;
}
// * * * * * * * * * * * * * * * * * * * * * * * * * * * * * * * * * * * * * //

scale .25e-3; //1e-3

xmin -.5;
xmax 1.9; //3;
ymin -.5;
ymax .5;
zmin -.5;
zmax .5;
cells 15;

vertices
(
    ($xmin $ymin $zmin) //0
    ($xmax $ymin $zmin) //1
    ($xmax $ymax $zmin) //2
    ($xmin $ymax $zmin) //3

    ($xmin $ymin $zmax) //4
    ($xmax $ymin $zmax) //5
    ($xmax $ymax $zmax) //6
    ($xmin $ymax $zmax) //7
);

blocks
(
    hex (0 1 2 3 4 5 6 7) (
#eval "$cells*(($xmax)-($xmin))"
#eval "$cells*(($ymax)-($ymin))"
#eval "$cells*(($zmax)-($zmin))"
    ) simpleGrading (1 1 1)
);

edges
(
);

boundary
(
    bottom
    {
        type wall;
        faces
        ( 
            (0 1 2 3)
        );
    }
    top
    {
        type wall;
        faces
        (
            (4 5 6 7)
        );
    }
    side
    {
        type wall;
        faces
        (
            (3 7 4 0) // left
            (1 2 6 5) // right
            (3 2 6 7) // front
            (0 1 5 4) // back
        );
    }
);

// ************************************************************************* //
