/*--------------------------------*- C++ -*----------------------------------*\
| =========                 |                                                 |
| \\      /  F ield         | OpenFOAM: The Open Source CFD Toolbox           |
|  \\    /   O peration     | Version:  dev                                   |
|   \\  /    A nd           | Website:  www.openfoam.com                      |
|    \\/     M anipulation  |                                                 |
\*---------------------------------------------------------------------------*/
FoamFile
{
    version     2.0;
    format      ascii;
    class       dictionary;
    location    "system";
    object      fvSchemes;
}
// * * * * * * * * * * * * * * * * * * * * * * * * * * * * * * * * * * * * * //

ddtSchemes
{
    default         Euler;
}

gradSchemes
{
    default         Gauss linear;
}

divSchemes
{
    //default         Gauss linear;
    div(((rho*U)&devRhoReff))           Gauss linear;
    div(((rho*nuEff)*dev2(T(grad(U))))) Gauss linear;
    // limitedLinear -- Koren limiter
    div(rhoPhi,U)   Gauss linearUpwind grad(U);
    div(rhoPhi,h)   Gauss linearUpwind grad(h);
}

laplacianSchemes
{
    default         Gauss linear orthogonal; // orthogonal is used for Cartesian meshes
}

interpolationSchemes
{
    //default         linear;
    flux(U)                     linear;
    interpolate(nHat)           linear;
    interpolate(rho)            harmonic;
    interpolate(rAU)            linear;
    interpolate(vapourPressure) harmonic;
    interpolate(rho|A)          linear;
    dotInterpolate(S,U_0)       linear;
    interpolate((rho*rAU))      linear;
    flux(HbyA)                  linear;
    interpolate((sigma*interfaceProperties:K)) linear;
}

snGradSchemes
{
    default         orthogonal;
}

// ************************************************************************* //
