/*--------------------------------*- C++ -*----------------------------------*\
| =========                 |                                                 |
| \\      /  F ield         | OpenFOAM: The Open Source CFD Toolbox           |
|  \\    /   O peration     | Version:  2.3.0                                 |
|   \\  /    A nd           | Web:      www.OpenFOAM.org                      |
|    \\/     M anipulation  |                                                 |
\*---------------------------------------------------------------------------*/
FoamFile
{
    version     2.0;
    format      ascii;
    class       dictionary;
    location    "constant";
    object      dsmcProperties;
}
// * * * * * * * * * * * * * * * * * * * * * * * * * * * * * * * * * * * * * //


// General Properties
// ~~~~~~~~~~~~~~~~~~

nEquivalentParticles            _nParticles_; // = 1/(2*k_B)/particles


// Wall Interaction Model
// ~~~~~~~~~~~~~~~~~~~~~~

WallInteractionModel            MaxwellianThermal;


// Binary Collision Model
// ~~~~~~~~~~~~~~~~~~~~~~

BinaryCollisionModel            VariableHardSphere;

VariableHardSphereCoeffs
{
    Tref        1;
}

// Inflow Boundary Model
// ~~~~~~~~~~~~~~~~~~~~~

InflowBoundaryModel             FreeStream;

FreeStreamCoeffs
{
    numberDensities
    {
        Gas                     _ndensity_; // = 1/(2*k_B)
    };
}

// Molecular species
// ~~~~~~~~~~~~~~~~~

typeIdList                      (Gas);

moleculeProperties
{
    Gas
    {
        mass                            _mass_; // = 2*k_B
        diameter                        _diameter_; // = sqrt( 2*k_B / (sqrt(2)*pi*Kn) )
        internalDegreesOfFreedom        0;
        omega                           0.81;
    }
}


// ************************************************************************* //
