/*--------------------------------*- C++ -*----------------------------------*\
| =========                 |                                                 |
| \\      /  F ield         | OpenFOAM: The Open Source CFD Toolbox           |
|  \\    /   O peration     | Version:  dev                                   |
|   \\  /    A nd           | Website:  www.openfoam.com                      |
|    \\/     M anipulation  |                                                 |
\*---------------------------------------------------------------------------*/
FoamFile
{
    version     2.0;
    format      ascii;
    class       dictionary;
    location    "system";
    object      controlDict;
}
// * * * * * * * * * * * * * * * * * * * * * * * * * * * * * * * * * * * * * //

application     slmStressesFoam;

startFrom       latestTime;

startTime       0;

stopAt          endTime;

endTime         6e-4;

deltaT          1e-6;

writeControl    timeStep; //adjustableRunTime;  // use timeStep for debug

writeInterval   1; //1e-5;               // use 1 for debug

purgeWrite      0;

writeFormat     binary;

writePrecision  6;

writeCompression off;

timeFormat      general;

timePrecision   6;

runTimeModifiable yes;

adjustTimeStep  yes;

maxDeltaT       1;

maxCo           0.5;

writeAllFields yes;

DebugSwitches
{
    quiescentGasMetalThermalProperties  0;
}

// ************************************************************************* //
