/*--------------------------------*- C++ -*----------------------------------*\
| =========                 |                                                 |
| \\      /  F ield         | OpenFOAM: The Open Source CFD Toolbox           |
|  \\    /   O peration     | Version:  dev                                   |
|   \\  /    A nd           | Website:  www.openfoam.com                      |
|    \\/     M anipulation  |                                                 |
\*---------------------------------------------------------------------------*/
FoamFile
{
    version     2.0;
    format      ascii;
    class       dictionary;
    location    "system";
    object      fvSchemes;
}
// * * * * * * * * * * * * * * * * * * * * * * * * * * * * * * * * * * * * * //

ddtSchemes
{
    default         backward;
}

gradSchemes
{
    //default         Gauss linear;
    nHat            Gauss linear;
}

divSchemes
{
    //default         Gauss linear;
}

laplacianSchemes
{
    default         Gauss linear orthogonal;
    laplacian(k,T)  Gauss harmonic orthogonal;
}

interpolationSchemes
{
    default         linear;
    interpolate(k)  harmonic;
}

snGradSchemes
{
    default         orthogonal;
}

// ************************************************************************* //
