/*--------------------------------*- C++ -*----------------------------------*\
| =========                 |                                                 |
| \\      /  F ield         | OpenFOAM: The Open Source CFD Toolbox           |
|  \\    /   O peration     | Version:  dev                                   |
|   \\  /    A nd           | Website:  www.openfoam.com                      |
|    \\/     M anipulation  |                                                 |
\*---------------------------------------------------------------------------*/
FoamFile
{
    version     2.0;
    format      ascii;
    class       dictionary;
    location    "system";
    object      fvSolution;
}
// * * * * * * * * * * * * * * * * * * * * * * * * * * * * * * * * * * * * * //

solvers
{
    "h.*"
    {
        solver          PBiCGStab;
        preconditioner  DIC;
        tolerance       1e-10;
        relTol          0;
    }
    hcorr
    {
        tolerance       1e-17;
    }
}

PIMPLE
{
    nOuterCorrectors    5; // for all variables
    nEnthalpyCorrectors 3;

    momentumPredictor   no;
    nCorrectors         0;
    nNonOrthogonalCorrectors 0;

    residualControl
    {
        "h"
        {
            tolerance   1e-5;
            relTol      0;
        }
    }
}

relaxationFactors
{
    equations
    {
        ".*" 1;
    }
}


// ************************************************************************* //
