/*--------------------------------*- C++ -*----------------------------------*\
| =========                 |                                                 |
| \\      /  F ield         | OpenFOAM: The Open Source CFD Toolbox           |
|  \\    /   O peration     | Version:  dev                                   |
|   \\  /    A nd           | Website:  www.openfoam.com                      |
|    \\/     M anipulation  |                                                 |
\*---------------------------------------------------------------------------*/
FoamFile
{
    version     2.0;
    format      ascii;
    class       dictionary;
    location    "constant";
    object      dynamicMeshDict;
}
// * * * * * * * * * * * * * * * * * * * * * * * * * * * * * * * * * * * * * //

//dynamicFvMesh   staticFvMesh;
dynamicFvMesh   dynamicRefineFvMesh;

// How often to refine
refineInterval  1;

// Field to be refinement on
field           alpha.metal;

// Refine field in between lower..upper
lowerRefineLevel 0.001;
upperRefineLevel 0.999;

// If value < unrefineLevel unrefine
unrefineLevel   1e-8;   // should be small enough to prevent spurious particle injection

// Have slower than 2:1 refinement
nBufferLayers   1;

// Refine cells only up to maxRefinement levels
maxRefinement   2;

// Stop refinement if maxCells reached
maxCells        200000;

// Flux field and corresponding velocity field. Fluxes on changed
// faces get recalculated by interpolating the velocity. Use 'none'
// on surfaceScalarFields that do not need to be reinterpolated.
correctFluxes
(
    (phi none)
    (phiPrevIter none)
    (nHatf none)
    (rhoPhi none)
    (alphaPhi_ none)
    (ghf none)
    (phi0 none)
    (dVf_ none)
    (phiRel none)
);

// Write the refinement level as a volScalarField
dumpLevel       true;


// ************************************************************************* //
