/*--------------------------------*- C++ -*----------------------------------*\
  =========                 |
  \\      /  F ield         | OpenFOAM: The Open Source CFD Toolbox
   \\    /   O peration     | Website:  https://openfoam.org
    \\  /    A nd           | Version:  7  
     \\/     M anipulation  |
\*---------------------------------------------------------------------------*/
FoamFile
{
    version     2.0;
    format      ascii;
    class       dictionary;
    location    "constant";
    object      powderBedProperties;
}
// * * * * * * * * * * * * * * * * * * * * * * * * * * * * * * * * * * * * * //

ballRadius          ballRadius          [ 0 1 0 0 0 0 0 ]   2e-5;
substratePosition   substratePosition   [ 0 1 0 0 0 0 0 ]   0;

seed                123;
amplitudeRadius     0.1;
amplitudePosition   0.5;
latticeStep         2.7;

// ************************************************************************* //
