/*--------------------------------*- C++ -*----------------------------------*\
  =========                 |
  \\      /  F ield         | OpenFOAM: The Open Source CFD Toolbox
   \\    /   O peration     | Website:  https://openfoam.org
    \\  /    A nd           | Version:  7  
     \\/     M anipulation  |
\*---------------------------------------------------------------------------*/
FoamFile
{
    version     2.0;
    format      ascii;
    class       dictionary;
    location    "constant";
    object      problemProperties;
}
// * * * * * * * * * * * * * * * * * * * * * * * * * * * * * * * * * * * * * //

permeability    permeability    [ 1 -3 -1 0 0 0 0 ] 5e+2;
molarMass       molarMass       [ 1 0 0 0 -1 0 0 ]  55.8e-3; // for iron
ambientPressure ambientPressure [ 1 -1 -2 0 0 0 0 ] 101325;

// ************************************************************************* //
