/*--------------------------------*- C++ -*----------------------------------*\
  =========                 |
  \\      /  F ield         | OpenFOAM: The Open Source CFD Toolbox
   \\    /   O peration     | Website:  https://openfoam.org
    \\  /    A nd           | Version:  7  
     \\/     M anipulation  |
\*---------------------------------------------------------------------------*/
FoamFile
{
    version     2.0;
    format      ascii;
    class       dictionary;
    location    "constant";
    object      problemProperties;
}
// * * * * * * * * * * * * * * * * * * * * * * * * * * * * * * * * * * * * * //

molarMass           molarMass           [ 1 0 0 0 -1 0 0 ]  55.95e-3; // for 0.691Fe + 0.183Cr + 0.114Ni + 0.012Mo
ambientPressure     ambientPressure     [ 1 -1 -2 0 0 0 0 ] 101325;

emissivity          0.2;
evaporationCoeff    0.82;

// ************************************************************************* //
