/*--------------------------------*- C++ -*----------------------------------*\
  =========                 |
  \\      /  F ield         | OpenFOAM: The Open Source CFD Toolbox
   \\    /   O peration     | Website:  https://openfoam.org
    \\  /    A nd           | Version:  7
     \\/     M anipulation  |
\*---------------------------------------------------------------------------*/
FoamFile
{
    version     2.0;
    format      binary;
    class       dictionary;
    location    "constant";
    object      thermalProperties;
}
// * * * * * * * * * * * * * * * * * * * * * * * * * * * * * * * * * * * * * //

T0              T0 [ 0 0 0 1 0 0 0 ] 273;

k_sol           k_sol [ 1 1 -3 -1 0 0 0 ] 16;

dk_sol          dk_sol [ 1 1 -3 -2 0 0 0 ] 0.011;

k_liq           k_liq [ 1 1 -3 -1 0 0 0 ] 28;

dk_liq          dk_liq [ 1 1 -3 -2 0 0 0 ] 0.001;

Cp_sol          Cp_sol [ 0 2 -2 -1 0 0 0 ] 470;

dCp_sol         dCp_sol [ 0 2 -2 -2 0 0 0 ] 0.14;

Cp_liq          Cp_liq [ 0 2 -2 -1 0 0 0 ] 830;

dCp_liq         dCp_liq [ 0 2 -2 -2 0 0 0 ] 1e-06;

T_solidus       T_solidus [ 0 0 0 1 0 0 0 ] 1100;

T_liquidus      T_liquidus [ 0 0 0 1 0 0 0 ] 1683;

T_boiling       T_boiling [ 0 0 0 1 0 0 0 ] 3086;

enthalpyFusion  enthalpyFusion [ 0 2 -2 0 0 0 0 ] 268000;

enthalpyEvaporation enthalpyEvaporation [ 0 2 -2 0 0 0 0 ] 7.41e+06;


// ************************************************************************* //
