/*--------------------------------*- C++ -*----------------------------------*\
| =========                 |                                                 |
| \\      /  F ield         | OpenFOAM: The Open Source CFD Toolbox           |
|  \\    /   O peration     | Version:  2.2.0                                 |
|   \\  /    A nd           | Web:      www.OpenFOAM.org                      |
|    \\/     M anipulation  |                                                 |
\*---------------------------------------------------------------------------*/
FoamFile
{
    version     2.0;
    format      ascii;
    class       volScalarField;
    location    "0";
    object      T1;
}
// * * * * * * * * * * * * * * * * * * * * * * * * * * * * * * * * * * * * * //

dimensions      [0 0 0 1 0 0 0];

internalField   uniform 1;

boundaryField
{
    bottom
    {
        type zeroGradient;
    }
    top
    {
        type            codedFixedValue;
        value           uniform 0;
        redirectType    temperature1;   // name of generated BC

        code
        #{
            const volScalarField& U0 = db().lookupObject<volScalarField>("U0");
            const volScalarField& T0 = db().lookupObject<volScalarField>("T0");
            const dimensionedScalar d1 = db().lookupObject<IOdictionary>("transportProperties").lookup("d1");
            const surfaceScalarField wallT1 = -d1*fvc::interpolate(T0)*fvc::snGrad(T0);
            label patchId = patch().boundaryMesh().findPatchID("top");
            operator==(wallT1.boundaryField()[patchId]);
        #};
        codeInclude
        #{
            #include "fvCFD.H"
        #};

        codeOptions
        #{
            -I$(LIB_SRC)/finiteVolume/lnInclude
        #};
    }
    leftAndRight
    {
        type empty;
    }
    frontAndBack
    {
        type empty;
    }
}


// ************************************************************************* //
