/*--------------------------------*- C++ -*----------------------------------*\
| =========                 |                                                 |
| \\      /  F ield         | OpenFOAM: The Open Source CFD Toolbox           |
|  \\    /   O peration     | Version:  2.2.0                                 |
|   \\  /    A nd           | Web:      www.OpenFOAM.org                      |
|    \\/     M anipulation  |                                                 |
\*---------------------------------------------------------------------------*/
FoamFile
{
    version     2.0;
    format      ascii;
    class       volScalarField;
    location    "0";
    object      U0;
}
// * * * * * * * * * * * * * * * * * * * * * * * * * * * * * * * * * * * * * //

dimensions      [0 1 -1 0 0 0 0];

internalField   uniform 0;

boundaryField
{
    bottom
    {
        type fixedValue;
        value uniform 0;
    }
    top
    {
        type            codedFixedValue;
        value           uniform 0;
        redirectType    velocity0;   // name of generated BC

        code
        #{
            scalar kn, k0, U;
            db().lookupObject<IOdictionary>("nondimensionalProperties").lookup("kn") >> kn;
            db().lookupObject<IOdictionary>("nondimensionalProperties").lookup("k0") >> k0;
            db().lookupObject<IOdictionary>("nondimensionalProperties").subDict(patch().name()).lookup("velocity") >> U;
            const fvPatchField<scalar>& T0 = patch().lookupPatchField<volScalarField, scalar>("T0");
            const volScalarField& p0 = db().lookupObject<volScalarField>("press0");
            scalar relax = patch().boundaryMesh().mesh().fieldRelaxationFactor("U0");
            scalar k = kn*sqrt(constant::mathematical::pi)/2;
            scalar p0_ = getRefCellValue(p0, 0);
            (*this)== relax * (U/2 + k0*k/p0_*T0*snGrad()) + (1-relax)*(*this);
        #};
        codeInclude
        #{
            #include "fvCFD.H"
        #};

        codeOptions
        #{
            -I$(LIB_SRC)/finiteVolume/lnInclude
        #};
    }
    leftAndRight
    {
        type empty;
    }
    frontAndBack
    {
        type empty;
    }
}


// ************************************************************************* //
