/*--------------------------------*- C++ -*----------------------------------*\
| =========                 |                                                 |
| \\      /  F ield         | OpenFOAM: The Open Source CFD Toolbox           |
|  \\    /   O peration     | Version:  2.2.0                                 |
|   \\  /    A nd           | Web:      www.OpenFOAM.org                      |
|    \\/     M anipulation  |                                                 |
\*---------------------------------------------------------------------------*/
FoamFile
{
    version     2.0;
    format      ascii;
    class       dictionary;
    object      blockMeshDict;
}
// * * * * * * * * * * * * * * * * * * * * * * * * * * * * * * * * * * * * * //

convertToMeters .5;

vertices
(
    (0 0 0)
    (2 0 0)
    (2 1 0)
    (0 1 0)
    (0 0 0.1)
    (2 0 0.1)
    (2 1 0.1)
    (0 1 0.1)
);

blocks
(
    hex (0 1 2 3 4 5 6 7) (100 50 1) simpleGrading (1 5 1)
);

edges
(
);

boundary
(
    wall
    {
    	type wall;
    	faces
	(
            (1 5 4 0)
	);
    }
    symmetry
    {
        type symmetryPlane;
        faces
        (
	    (3 7 6 2)
        );
    }
    left
    {
	type cyclic;
	neighbourPatch right;
        faces
        (
            (0 4 7 3)
	);
    }
    right
    {
	type cyclic;
	neighbourPatch left;
        faces
        (
            (2 6 5 1)
	);
    }
    frontAndBack
    {
        type empty;
        faces
        (
            (0 3 2 1)
            (4 5 6 7)
        );
    }
);

mergePatchPairs
(
);

// ************************************************************************* //
