/*--------------------------------*- C++ -*----------------------------------*\
| =========                 |                                                 |
| \\      /  F ield         | OpenFOAM: The Open Source CFD Toolbox           |
|  \\    /   O peration     | Version:  2.2.0                                 |
|   \\  /    A nd           | Web:      www.OpenFOAM.org                      |
|    \\/     M anipulation  |                                                 |
\*---------------------------------------------------------------------------*/
FoamFile
{
    version     2.0;
    format      ascii;
    class       dictionary;
    location    "constant";
    object      transportProperties;
}
// * * * * * * * * * * * * * * * * * * * * * * * * * * * * * * * * * * * * * //

gamma1          gamma1  [ 1 -1 -1 -.5 0 0 0 ]   1.270042427;
gamma2          gamma2  [ 1 1 -3 -1.5 0 0 0 ]   1.922284066;
gamma3          gamma3  [ 1 1 -2 -1 0 0 0 ]     1.947906335;
gamma7          gamma7  [ 1 1 -2 -1 0 0 0 ]     0.189201;
gamma8          gamma8  [ 1 -1 0 0 0 0 0 ]     1.4963;
gamma9          gamma9  [ 1 -1 0 0 0 0 0 ]     1.6357;
gamma10         gamma10 [ 1 1 -2 -1 0 0 0 ]     2.4633;
k0              k0      [ 0 1 0 0 0 0 0 ]      -1.2540;
d1              d1      [ 0 1 0 0 0 0 0 ]      2.4001;
s               s       [ 0 0 0 0 0 0 0 ]       0.5;
kn              kn      [ 0 0 0 0 0 0 0 ]       0.1;

// ************************************************************************* //
