/*--------------------------------*- C++ -*----------------------------------*\
| =========                 |                                                 |
| \\      /  F ield         | OpenFOAM: The Open Source CFD Toolbox           |
|  \\    /   O peration     | Version:  dev                                   |
|   \\  /    A nd           | Website:  www.openfoam.com                      |
|    \\/     M anipulation  |                                                 |
\*---------------------------------------------------------------------------*/
FoamFile
{
    version     2.0;
    format      ascii;
    class       dictionary;
    location    "constant";
    object      alloyProperties;
}
// * * * * * * * * * * * * * * * * * * * * * * * * * * * * * * * * * * * * * //

components
(
    Mn
    {
        molarMass       55e-3;
        equilibriumS    0.146;
        equilibriumL    0.189;
        slopeS          -1168;
        slopeL          -1168;
        diffusionS      3.0e-14;
        diffusionL      2.7e-9;
    }
);

baseMolarMass   5.58e-2;
rhoLiquidus     8173.17; // calculated to provide \Gamma = 3e-7
interfaceEnergy 0.40;

solidus         1652.8;
liquidus        1703;
latentHeat      272372; // calculated to provide entropyChange = 8.9;

// ************************************************************************* //
