/*--------------------------------*- C++ -*----------------------------------*\
| =========                 |                                                 |
| \\      /  F ield         | OpenFOAM: The Open Source CFD Toolbox           |
|  \\    /   O peration     | Version:  dev                                   |
|   \\  /    A nd           | Website:  www.openfoam.com                      |
|    \\/     M anipulation  |                                                 |
\*---------------------------------------------------------------------------*/
FoamFile
{
    version     2.0;
    format      ascii;
    class       dictionary;
    location    "constant";
    object      alloyProperties;
}
// * * * * * * * * * * * * * * * * * * * * * * * * * * * * * * * * * * * * * //

// Solid diffusion is taken from Miettinen1997

phases (liquid solid);

components
(
    Cr
    {
        type linearised;
        molarMass       5.20e-2;

        phases
        (
            liquid
            {
                equilibrium 0.17;
                slope       6272;
                diffusion   2.0e-9;
            }

            solid
            {
                equilibrium 0.1747;
                slope       5765;
                diffusion   1.0e-11; // 1.0e-14;
            }
        );
    }

    Ni
    {
        type linearised;
        molarMass       5.87e-2;

        phases
        (
            liquid
            {
                equilibrium 0.12;
                slope       -862.2;
                diffusion   2.0e-9;
            }

            solid
            {
                equilibrium 0.0914;
                slope       -1226;
                diffusion   6.8e-12; // 1.0e-14;
            }
        );
    }

    Mo
    {
        type linearised;
        molarMass       9.60e-2;

        phases
        (
            liquid
            {
                equilibrium 0.025;
                slope       7877;
                diffusion   2.0e-9;
            }

            solid
            {
                equilibrium 0.0288;
                slope       6990;
                diffusion   1.3e-11; // 1.0e-14;
            }
        );
    }

    C
    {
        type linearised;
        molarMass       1.20e-2;

        phases
        (
            liquid
            {
                equilibrium 0.0003;
                slope       -63800;
                diffusion   2.0e-9; // 2.0e-9;
            }

            solid
            {
                equilibrium 3.27e-5;
                slope       -674700;
                diffusion   1.0e-11; // 4.1e-9; // 1.0e-14;
            }
        );
    }
);

baseMolarMass       5.58e-2;
rhoSolid            7266;    // calculated for ferrite in ../data316L/diagrams.plt // Kim1975: 7256
// Liquid phase: calculated: 6937, Kim1975: 6979
interfaceEnergy     0.358;   // Pinomaa2020; Nomoto2019: 0.2

solidus             1698.25; // Pichler2020: 1675+/-15
liquidus            1726.78; // Pichler2020: 1708+/-30
latentHeat          2.9e5;   // Pichler2020

// entropyChange[J/mol/K] = latentHeat[J/kg]*molarMass[kg/mol]/liquidus[K]
// entropyChange = 2.9e5*0.056/1710 = 9.50; // AISI 316L
// entropyChange = 13810/1713 = 8.06; // pure iron
// entropyChange = 1.25e9*0.056/6980/1710 = 5.86; // Pinomaa2020

nAnisotropyModes    4;
capillaryAnisotropy 0.018;
kineticAnisotropy   0.13;

// ************************************************************************* //
