/*--------------------------------*- C++ -*----------------------------------*\
| =========                 |                                                 |
| \\      /  F ield         | foam-extend: Open Source CFD                    |
|  \\    /   O peration     | Version:     4.0                                |
|   \\  /    A nd           | Web:         http://www.foam-extend.org         |
|    \\/     M anipulation  |                                                 |
\*---------------------------------------------------------------------------*/
FoamFile
{
    version     2.0;
    format      ascii;
    class       dictionary;
    location    "constant";
    object      alloyProperties;
}
// * * * * * * * * * * * * * * * * * * * * * * * * * * * * * * * * * * * * * //

// Solid diffusion is taken from Miettinen1997

components
(
    Cr
    {
        rhoMelting      rhoMelting      [ 1 -3 0 0 0 0 0 ]  6300;
        molarMass       molarMass       [ 1 0 0 0 -1 0 0 ]  5.2e-2;
        equilibriumS    equilibriumS    [ 0 0 0 0 0 0 0 ]   0.1747;
        equilibriumL    equilibriumL    [ 0 0 0 0 0 0 0 ]   0.17;
        slopeS          slopeS          [ 0 0 0 1 0 0 0 ]   5765;
        slopeL          slopeL          [ 0 0 0 1 0 0 0 ]   6272;
        diffusionS      diffusionS      [ 0 2 -1 0 0 0 0 ]  1.0e-11; // 1.0e-14;
        diffusionL      diffusionL      [ 0 2 -1 0 0 0 0 ]  2.0e-9;
    }

    Ni
    {
        rhoMelting      rhoMelting      [ 1 -3 0 0 0 0 0 ]  7810;
        molarMass       molarMass       [ 1 0 0 0 -1 0 0 ]  5.87e-2;
        equilibriumS    equilibriumS    [ 0 0 0 0 0 0 0 ]   0.0914;
        equilibriumL    equilibriumL    [ 0 0 0 0 0 0 0 ]   0.12;
        slopeS          slopeS          [ 0 0 0 1 0 0 0 ]   -1226;
        slopeL          slopeL          [ 0 0 0 1 0 0 0 ]   -862.2;
        diffusionS      diffusionS      [ 0 2 -1 0 0 0 0 ]  6.8e-12; // 1.0e-14;
        diffusionL      diffusionL      [ 0 2 -1 0 0 0 0 ]  2.0e-9;
    }

    Mo
    {
        rhoMelting      rhoMelting      [ 1 -3 0 0 0 0 0 ]  9330;
        molarMass       molarMass       [ 1 0 0 0 -1 0 0 ]  9.6e-2;
        equilibriumS    equilibriumS    [ 0 0 0 0 0 0 0 ]   0.0288;
        equilibriumL    equilibriumL    [ 0 0 0 0 0 0 0 ]   0.025;
        slopeS          slopeS          [ 0 0 0 1 0 0 0 ]   6990;
        slopeL          slopeL          [ 0 0 0 1 0 0 0 ]   7877;
        diffusionS      diffusionS      [ 0 2 -1 0 0 0 0 ]  1.3e-11; // 1.0e-14;
        diffusionL      diffusionL      [ 0 2 -1 0 0 0 0 ]  2.0e-9;
    }

    C
    {
        rhoMelting      rhoMelting      [ 1 -3 0 0 0 0 0 ]  2000;
        molarMass       molarMass       [ 1 0 0 0 -1 0 0 ]  1.2e-2;
        equilibriumS    equilibriumS    [ 0 0 0 0 0 0 0 ]   3.27e-5;
        equilibriumL    equilibriumL    [ 0 0 0 0 0 0 0 ]   0.0003;
        slopeS          slopeS          [ 0 0 0 1 0 0 0 ]   -674700;
        slopeL          slopeL          [ 0 0 0 1 0 0 0 ]   -63800;
        diffusionS      diffusionS      [ 0 2 -1 0 0 0 0 ]  1.0e-11; // 4.1e-9; // 1.0e-14;
        diffusionL      diffusionL      [ 0 2 -1 0 0 0 0 ]  2.0e-9; // 2.0e-9;
    }
);

entropyChange   entropyChange   [ 1 2 -2 -1 -1 0 0 ]    9.50;   // = 2.9e5*0.056/1710; AISI 316L
// entropyChange = 13810/1713 = 8.06; // pure iron
// entropyChange = 1.25e9*0.056/6980/1710 = 5.86; // Pinomaa2020
interfaceEnergy interfaceEnergy [ 1 0 -2 0 0 0 0 ]      0.358;  // Pinomaa2020
// interfaceEnergy = 0.2; // Nomoto2019
solidus         solidus         [ 0 0 0 1 0 0 0 ]       1699;
liquidus        liquidus        [ 0 0 0 1 0 0 0 ]       1727;

// ************************************************************************* //
