/*--------------------------------*- C++ -*----------------------------------*\
| =========                 |                                                 |
| \\      /  F ield         | foam-extend: Open Source CFD                    |
|  \\    /   O peration     | Version:     4.0                                |
|   \\  /    A nd           | Web:         http://www.foam-extend.org         |
|    \\/     M anipulation  |                                                 |
\*---------------------------------------------------------------------------*/
FoamFile
{
    version     2.0;
    format      ascii;
    class       dictionary;
    location    "constant";
    object      alloyProperties;
}
// * * * * * * * * * * * * * * * * * * * * * * * * * * * * * * * * * * * * * //

// All values are taken from Pinomaa2020

components
(
    Cr
    {
        rhoMelting      rhoMelting      [ 1 -3 0 0 0 0 0 ]  6300;
        molarMass       molarMass       [ 1 0 0 0 -1 0 0 ]  52e-3;
        equilibriumS    equilibriumS    [ 0 0 0 0 0 0 0 ]   0.14;
        equilibriumL    equilibriumL    [ 0 0 0 0 0 0 0 ]   0.17;
        slopeS          slopeS          [ 0 0 0 1 0 0 0 ]   -349;
        slopeL          slopeL          [ 0 0 0 1 0 0 0 ]   -441;
        diffusionS      diffusionS      [ 0 2 -1 0 0 0 0 ]  3e-14;
        diffusionL      diffusionL      [ 0 2 -1 0 0 0 0 ]  3e-9;
    }
);

entropyChange   entropyChange   [ 1 2 -2 -1 -1 0 0 ]    5.86; // =1.25e9*0.056/6980/1710
interfaceEnergy interfaceEnergy [ 1 0 -2 0 0 0 0 ]      0.358;
solidus         solidus         [ 0 0 0 1 0 0 0 ]       1700;
liquidus        liquidus        [ 0 0 0 1 0 0 0 ]       1715;

// ************************************************************************* //
