/*--------------------------------*- C++ -*----------------------------------*\
| =========                 |                                                 |
| \\      /  F ield         | OpenFOAM: The Open Source CFD Toolbox           |
|  \\    /   O peration     | Version:  dev                                   |
|   \\  /    A nd           | Website:  www.openfoam.com                      |
|    \\/     M anipulation  |                                                 |
\*---------------------------------------------------------------------------*/
FoamFile
{
    version     2.0;
    format      ascii;
    class       dictionary;
    location    "constant";
    object      alloyProperties;
}
// * * * * * * * * * * * * * * * * * * * * * * * * * * * * * * * * * * * * * //

components
(
    Mn
    {
        molarMass       5.5e-2;
        equilibriumS    0.1462;
        equilibriumL    0.185;
        slopeS          -1196;
        slopeL          -995;
        diffusionS      1.0e-14;
        diffusionL      3.0e-9;
    }

    Al
    {
        molarMass       2.7e-2;
        equilibriumS    0.0106;
        equilibriumL    0.01;
        slopeS          79000;
        slopeL          23500;
        diffusionS      1.0e-14;
        diffusionL      2.7e-9;
    }

    C
    {
        molarMass       1.2e-2;
        equilibriumS    0.0011;
        equilibriumL    0.0033;
        slopeS          -21300;
        slopeL          -8170;
        diffusionS      3.0e-12;
        diffusionL      6.2e-9;
    }
);

baseMolarMass   5.58e-2;
rhoLiquidus     5441.77; // calculated to provide \Gamma = 3e-7
interfaceEnergy 0.27;

solidus         1656.6;
liquidus        1703;
latentHeat      281655; // calculated to provide entropyChange = 9.0

// ************************************************************************* //
