/*--------------------------------*- C++ -*----------------------------------*\
| =========                 |                                                 |
| \\      /  F ield         | OpenFOAM: The Open Source CFD Toolbox           |
|  \\    /   O peration     | Version:  dev                                   |
|   \\  /    A nd           | Website:  www.openfoam.com                      |
|    \\/     M anipulation  |                                                 |
\*---------------------------------------------------------------------------*/
FoamFile
{
    version     2.0;
    format      ascii;
    class       dictionary;
    location    "constant";
    object      alloyProperties;
}
// * * * * * * * * * * * * * * * * * * * * * * * * * * * * * * * * * * * * * //

// All values are taken from Pinomaa2020

components
(
    Cr
    {
        molarMass       52e-3;
        equilibriumS    0.14;
        equilibriumL    0.17;
        slopeS          -349;
        slopeL          -441;
        diffusionS      3e-14;
        diffusionL      3e-9;
    }
);

baseMolarMass       5.58e-2;
rhoSolid            7256;
interfaceEnergy     0.358;

solidus             1700;
liquidus            1715;
latentHeat          1.79e5; // = 1.25e9/6980

nAnisotropyModes    4;
capillaryAnisotropy 0.018;
kineticAnisotropy   0.13;

// ************************************************************************* //
