/*--------------------------------*- C++ -*----------------------------------*\
| =========                 |                                                 |
| \\      /  F ield         | OpenFOAM: The Open Source CFD Toolbox           |
|  \\    /   O peration     | Version:  dev                                   |
|   \\  /    A nd           | Website:  www.openfoam.com                      |
|    \\/     M anipulation  |                                                 |
\*---------------------------------------------------------------------------*/
FoamFile
{
    version     2.0;
    format      ascii;
    class       dictionary;
    location    "constant";
    object      phaseFieldProperties;
}
// * * * * * * * * * * * * * * * * * * * * * * * * * * * * * * * * * * * * * //

// Numerical constants
a1              0.23570; //= sqrt(2)/6
a2              2.3500;
aAT             0.70711; //= 1/sqrt(2)
aIF             2.757;
a3              1;
a4              10;

// Conditions for stable and accurate simulations
maxWbyD         50.0; // 5.0
maxHbyW         0.8;
minLbyD         25;   // 50
minSigmaW       0.05; // Kundin2019: 1.2

// ************************************************************************* //
