/*--------------------------------*- C++ -*----------------------------------*\
| =========                 |                                                 |
| \\      /  F ield         | OpenFOAM: The Open Source CFD Toolbox           |
|  \\    /   O peration     | Version:  dev                                   |
|   \\  /    A nd           | Website:  www.openfoam.com                      |
|    \\/     M anipulation  |                                                 |
\*---------------------------------------------------------------------------*/
FoamFile
{
    version     2.0;
    format      ascii;
    class       dictionary;
    location    "constant";
    object      phaseFieldProperties;
}
// * * * * * * * * * * * * * * * * * * * * * * * * * * * * * * * * * * * * * //

// Numerical constants
a1              0.2357;
a2              2.35;
a3              1;
a4              10;
hStar           2.757;

// Conditions for stable and accurate simulations
maxWbyD         50.0; // 5.0
maxHbyW         0.8;
minLbyD         25;   // 50
minSigmaW       0.05; // Kundin2019: 1.2

// ************************************************************************* //
