/*--------------------------------*- C++ -*----------------------------------*\
| =========                 |                                                 |
| \\      /  F ield         | foam-extend: Open Source CFD                    |
|  \\    /   O peration     | Version:     4.0                                |
|   \\  /    A nd           | Web:         http://www.foam-extend.org         |
|    \\/     M anipulation  |                                                 |
\*---------------------------------------------------------------------------*/
FoamFile
{
    version     2.0;
    format      ascii;
    class       dictionary;
    location    "constant";
    object      phaseFieldProperties;
}
// * * * * * * * * * * * * * * * * * * * * * * * * * * * * * * * * * * * * * //

sigma           sigma           [ 1 0 -2 0 0 0 0 ]  0.40;
interfaceWidth  interfaceWidth  [ 0 1 0 0 0 0 0 ]   1e-6;
density         density         [ 1 -3 0 0 0 0 0 ]  5950;
molarMass       molarMass       [ 1 0 0 0 -1 0 0 ] 0.0549;

epsilon4    0.05;

// ************************************************************************* //
