/*--------------------------------*- C++ -*----------------------------------*\
| =========                 |                                                 |
| \\      /  F ield         | foam-extend: Open Source CFD                    |
|  \\    /   O peration     | Version:     4.0                                |
|   \\  /    A nd           | Web:         http://www.foam-extend.org         |
|    \\/     M anipulation  |                                                 |
\*---------------------------------------------------------------------------*/
FoamFile
{
    version     2.0;
    format      ascii;
    class       dictionary;
    location    "constant";
    object      problemProperties;
}
// * * * * * * * * * * * * * * * * * * * * * * * * * * * * * * * * * * * * * //

undercooling    undercooling    [ 0 0 0 1 0 0 0 ]   30; //10;
tempGradient    tempGradient    [ 0 -1 0 1 0 0 0 ]  5e5; //5e5
coolingRate     coolingRate     [ 0 0 -1 1 0 0 0 ]  15e3; //3e3;

// Initial conditions
frontPosition 0.05;
nSeeds 1; //5
seedNarrowing 5; //5
interfaceNarrowing 1;

// ************************************************************************* //
