/*--------------------------------*- C++ -*----------------------------------*\
| =========                 |                                                 |
| \\      /  F ield         | OpenFOAM: The Open Source CFD Toolbox           |
|  \\    /   O peration     | Version:  dev                                   |
|   \\  /    A nd           | Website:  www.openfoam.com                      |
|    \\/     M anipulation  |                                                 |
\*---------------------------------------------------------------------------*/
FoamFile
{
    version     2.0;
    format      ascii;
    class       dictionary;
    location    "constant";
    object      problemProperties;
}
// * * * * * * * * * * * * * * * * * * * * * * * * * * * * * * * * * * * * * //

undercooling    undercooling    [ 0 0 0 1 0 0 0 ]   5; //10;
tempGradient    tempGradient    [ 0 -1 0 1 0 0 0 ]  5e5; //5e5
coolingRate     coolingRate     [ 0 0 -1 1 0 0 0 ]  5e3; //3e3;

// Initial conditions
frontPosition       0.05;
nSeeds              4;
seedNarrowing       5; //5
interfaceNarrowing  1;
addRandomSeeds      false; //true;

// ************************************************************************* //
