/*--------------------------------*- C++ -*----------------------------------*\
| =========                 |                                                 |
| \\      /  F ield         | OpenFOAM: The Open Source CFD Toolbox           |
|  \\    /   O peration     | Version:  dev                                   |
|   \\  /    A nd           | Website:  www.openfoam.com                      |
|    \\/     M anipulation  |                                                 |
\*---------------------------------------------------------------------------*/
FoamFile
{
    version     2.0;
    format      ascii;
    class       dictionary;
    location    "system";
    object      fvSolution;
}
// * * * * * * * * * * * * * * * * * * * * * * * * * * * * * * * * * * * * * //

solvers
{
    rho
    {
        solver          PCG;
        preconditioner  DIC;
        tolerance       1e-8;
        relTol          0.1;
    }

    rhoFinal
    {
        $rho
        relTol          0;
    }

    massFraction
    {
        solver          diagonal;
        tolerance       1e-7;
        relTol          0;
    }
}

PIMPLE
{
    nOuterCorrectors    20;
    residualControl
    {
        rho
        {
            tolerance   1e-7;
            relTol      0;
        }
    }
}

// ************************************************************************* //
