/*--------------------------------*- C++ -*----------------------------------*\
| =========                 |                                                 |
| \\      /  F ield         | OpenFOAM: The Open Source CFD Toolbox           |
|  \\    /   O peration     | Version:  2.2.0                                 |
|   \\  /    A nd           | Web:      www.OpenFOAM.org                      |
|    \\/     M anipulation  |                                                 |
\*---------------------------------------------------------------------------*/
FoamFile
{
    version     2.0;
    format      ascii;
    class       volVectorField;
    location    "0";
    object      U1;
}
// * * * * * * * * * * * * * * * * * * * * * * * * * * * * * * * * * * * * * //

dimensions      [0 1 -1 0 0 0 0];

internalField   uniform (0 0 0);

boundaryField
{
    bottom
    {
        type            codedFixedValue;
        value           $internalField;
        redirectType    velocity;
        code
        #{
            scalar alpha, K1;
            db().lookupObject<IOdictionary>("nondimensionalProperties").lookup("alpha") >> alpha;
            db().lookupObject<IOdictionary>("knudsenLayerProperties").lookup("K1") >> K1;
            scalar pi = constant::mathematical::pi;
            tmp<Field<scalar> > T0 = 1 - alpha*cos(2*pi*patch().Cf().component(vector::X));
            tmp<Field<scalar> > dT0 = 2*pi*alpha*sin(2*pi*patch().Cf().component(vector::X));
            Field<vector> U1(patch().Cf().size(), vector::zero);
            U1.replace(vector::X, -K1 * sqrt(T0) * dT0);
            (*this)== U1;
        #};
    }
    top
    {
        type symmetryPlane;
    }
    left
    {
        type symmetryPlane;
    }
    right
    {
        type symmetryPlane;
    }
    frontAndBack
    {
        type empty;
    }
}

// ************************************************************************* //
